/*--------------------------------*- C++ -*----------------------------------*\
| =========                 |                                                 |
| \\      /  F ield         | OpenFOAM: The Open Source CFD Toolbox           |
|  \\    /   O peration     | Version:  3.0.1                                 |
|   \\  /    A nd           | Web:      www.OpenFOAM.org                      |
|    \\/     M anipulation  |                                                 |
\*---------------------------------------------------------------------------*/
FoamFile
{
    version     2.0;
    format      ascii;
    class       dictionary;
    location    "system";
    object      fvSolution;
}
// * * * * * * * * * * * * * * * * * * * * * * * * * * * * * * * * * * * * * //

solvers
{
    "alpha.phase1.*"
    {
        nAlphaCorr      3;
        nAlphaSubCycles 3;
        cAlpha          1.0;
	scAlpha		0.5;

        MULESCorr       yes;
        nLimiterIter    5;

        solver          smoothSolver;
        smoother        symGaussSeidel;
        tolerance       1e-9;
        relTol          0;
    }

    p_rgh
    {   solver          PCG;
        preconditioner  DIC;
        tolerance       1e-12;
        minIter         1;
        maxIter         500;//2

	/*
        solver          GAMG;
        tolerance       1e-9;
        relTol          0.0;//0.005;//0.05;
        smoother        GaussSeidel;//GaussSeidel;//
        nPreSweeps      2;
        nPostSweeps     3;
        nFinestSweeps   2;
        cacheAgglomeration on;
        nCellsInCoarsestLevel 10;
        agglomerator    faceAreaPair;
        mergeLevels     1;
	*/



    }

    p_rghFinal
    {
        solver          PCG;
        preconditioner
        {
            preconditioner  GAMG;
            tolerance       1e-9;
            relTol          0;
            nVcycles        5;
            smoother        GaussSeidel;//GaussSeidel;//DICGaussSeidel;//
            nPreSweeps      2;
            nPostSweeps     3;
            nFinestSweeps   2;
            cacheAgglomeration on;
            nCellsInCoarsestLevel 10;
            agglomerator    faceAreaPair;
            mergeLevels     1;
        }
        tolerance       1e-9;
        relTol          0;
        maxIter         25;//20;
    }

    "pcorr.*"
    {
        solver          PCG;
        preconditioner
        {
            preconditioner  GAMG;
            tolerance       1e-9;
            relTol          0;
            smoother        GaussSeidel;
        }
        tolerance       1e-9;
        relTol          0;
        maxIter         100;
    }

    U
    {
        solver          smoothSolver;
        smoother        GaussSeidel;//GaussSeidel;//DICGaussSeidel;//
        tolerance       1e-9;
        relTol          0.0;//0.1;
        nSweeps         5;//1;
    }

    UFinal
    {
        $U;
        tolerance       1e-9;
        relTol          0;
    }

    Temperature
    {

        solver          PBiCG;
        preconditioner  DILU;
        tolerance       1e-12;
        minIter         1;
        maxIter         500;//2

/*
        solver          smoothSolver;
        smoother        symGaussSeidel;
        tolerance       1e-9;
        relTol          0.0;
*/
    }

    TemperatureFinal
    {
        $Temperature;
    }
}

PIMPLE
{
    nOuterCorrectors 1;
    nCorrectors     3;
    nNonOrthogonalCorrectors 0;
    pRefCell        0;
    pRefValue       0.0;
}

MELTING
{
    minTempCorrector 1;
    maxTempCorrector 150;
    epsilonTolerance 1e-6;
    epsilonRelaxation 0.95;
    
//	//	Heatsource characteristics (sourve hits at z-x-plane, y = 0)
HS_a 0.0003;//0.000030; //radius
HS_bg 0.001;//.004;//20 //x-axis offset
HS_velocity 0.0;//6.0;
HS_lg 0.00075;//0.00125; //z-axis offset
HS_Q 10000.0;//Power in Watt

HS_deposition_cutoff 0.5;//0.5; not really sure what that is

Oscillation_Amplitude   0.0;//0.015;
Oscillation_Frequency   0.0;

Y_R 0.1;//0.05; //Y_R->0 HS -> wider
focY	0.0;//0.0165; //-0.08;//
foc_shift_vel 0.0;
Q_ramp_rate 0.0;
tshift 0.0;

damperSwitch false;//true;
}

relaxationFactors
{
}
    "U.*"           0.82;//0.82;//1;
}

// ************************************************************************* //
